C:\Users\pb556\Desktop\data\g09\C2H6O.g09
 OpenBabel10161314183D
Gaussian 09 #p rB971/6-311+G(d,p) Opt=(Tight, NewEstmFC, MaxCyc=400) Freq GFInpu
  9  8  0  0  0  0  0  0  0  0999 V2000
    1.0196    0.8843    0.9734 C   0  0  0  0  0  0  0  0  0  0  0  0
    1.8755    1.9905    1.5708 C   0  0  0  0  0  0  0  0  0  0  0  0
   -0.0076    1.2340    0.8250 H   0  0  0  0  0  0  0  0  0  0  0  0
    0.9989    0.0153    1.6382 H   0  0  0  0  0  0  0  0  0  0  0  0
    1.4229    0.5686    0.0063 H   0  0  0  0  0  0  0  0  0  0  0  0
    3.1979    1.4812    1.7417 O   0  0  0  0  0  0  0  0  0  0  0  0
    1.8822    2.8647    0.9020 H   0  0  0  0  0  0  0  0  0  0  0  0
    1.4572    2.3102    2.5375 H   0  0  0  0  0  0  0  0  0  0  0  0
    3.7473    2.1730    2.1189 H   0  0  0  0  0  0  0  0  0  0  0  0
  1  2  1  0  0  0  0
  1  4  1  0  0  0  0
  2  6  1  0  0  0  0
  2  8  1  0  0  0  0
  3  1  1  0  0  0  0
  5  1  1  0  0  0  0
  6  9  1  0  0  0  0
  7  2  1  0  0  0  0
M  END
$$$$
