27

C          6.84018        6.67808        5.16000
H          4.77428        6.49944        5.78231
H          5.57630        4.95755        5.53084
H          5.92682        5.90777        6.96839
H          6.98513        7.69551        5.52642
H          7.78814        6.15020        5.27743
H          6.63286        6.74071        4.09090
C          5.72395        5.97446        5.89832
H          2.54383        7.19948        8.02822
H          2.19163        6.24468        6.59272
H          0.33303        6.00338        8.28412
C          2.39893        6.18208        7.66182
C          1.28263        5.47848        8.40012
H          3.34683        5.65418        7.77922
H          1.48553        5.41178        9.47022
H          1.13503        4.46158        8.03262
H          8.79561        8.38575        3.24747
C          9.74531        7.86085        3.36347
H          9.94811        7.79415        4.43357
H          9.59761        6.84395        2.99597
H         12.56678        8.62212        0.66927
H         11.76478       10.16382        0.92077
C         12.71448        9.63902        1.03677
H         12.91728        9.57232        2.10687
H         15.32999        9.88736       -1.25448
H         14.52799       11.42906       -1.00298
C         15.47769       10.90426       -0.88698
