8

C          0.00000        0.00000        0.00000
C          3.51200        0.00000        0.00000
H          3.91214        0.00000        1.01529
H          3.91480       -0.87986       -0.50451
H          3.91582        0.87862       -0.50564
H         -0.40148        0.87880        0.50697
H         -0.39681       -0.00071       -1.01671
H         -0.39818       -0.88089        0.50531
