9

C          0.00000        0.00000        0.00000
C          3.51990        0.00000        0.00000
H          3.91352        0.00000        1.02116
H          3.90788        0.88856       -0.50909
O         -0.54067       -0.07427       -1.32014
H         -0.38484        0.88164        0.53226
H         -0.25814        0.72899       -1.78870
H         -0.38342       -0.88478        0.51310
H          3.89256       -0.88433       -0.52153
