114
XYZ file generated by gabedit : coordinates in Angstrom
C         39.5372200000         45.8278630000         48.9578680000
C         39.6868130000         45.3664040000         50.4628330000
C         40.8133920000         44.5009530000         50.4118680000
C         41.2877700000         44.7842950000         49.0857740000
C         40.5612290000         45.4611120000         48.0495530000
C         41.1845470000         46.2303680000         47.1887600000
C         42.6154760000         44.6450260000         48.8213850000
C         43.0327280000         45.1798240000         47.6109690000
C         42.2841720000         45.6444330000         46.6131160000
C         42.8673170000         45.9220640000         45.3664270000
C         44.0769210000         45.3637130000         45.0575360000
C         44.6364900000         44.6173120000         46.0052440000
C         44.2514110000         44.7068570000         47.2907200000
C         43.6785840000         43.8423570000         49.2893790000
C         44.6040690000         43.6833520000         48.1367290000
C         42.1699050000         46.4756120000         44.2876110000
C         42.7209610000         46.4411250000         42.9533680000
C         43.9416970000         46.0594120000         42.7321020000
C         44.5691040000         45.4993490000         43.8020400000
C         42.2654600000         46.7207900000         41.6861250000
C         43.1418610000         46.2804210000         40.7629290000
C         44.3613930000         45.8615720000         41.3859290000
C         45.7917680000         44.9381190000         43.4892580000
C         46.3046250000         45.0419460000         42.2719420000
C         45.7149380000         45.6467750000         41.2068280000
C         45.7373450000         43.0490280000         47.9781320000
C         46.5415440000         43.2522680000         46.7453680000
C         45.8880830000         43.9845850000         45.7877100000
C         46.4728850000         44.2065240000         44.4934630000
C         47.7313240000         42.5633560000         46.4670360000
C         48.2468450000         42.8270230000         45.1355360000
C         47.6624600000         43.5615560000         44.1333640000
C         48.4211210000         43.8835750000         43.0261020000
C         47.7525020000         44.4683970000         42.0372410000
C         49.5571060000         42.4565770000         44.9378590000
C         50.1964650000         42.6353110000         43.7972700000
C         49.5729060000         43.2844350000         42.8046590000
H         47.7790490000         43.3960430000         41.7073670000
H         48.1688320000         45.0247020000         41.1858590000
H         43.4263380000         46.6626860000         39.6709750000
H         42.6164150000         45.3803870000         40.5100870000
H         41.5883380000         47.5356550000         41.5041720000
H         39.7804760000         46.8549040000         49.1865320000
H         38.6060240000         45.7584530000         48.3652450000
H         38.8303330000         44.8271840000         50.8586420000
H         40.1710510000         46.1605600000         50.7890640000
H         41.5648520000         44.7524460000         51.0621820000
H         40.3931920000         43.5376920000         50.3488320000
H         43.2064350000         42.8443460000         49.5860180000
H         46.2081400000         42.4256990000         48.6768940000
H         48.1788110000         41.8713360000         46.9428020000
H         40.9097380000         47.1864140000         46.5963800000
H         41.1768580000         46.6603540000         44.4206460000
H         49.8600190000         41.5501680000         45.5246300000
H         51.0000670000         41.8809700000         43.3759710000
H         50.1363830000         43.4180590000         41.9939980000
H         46.0069630000         45.7540710000         40.1904450000
C         46.4889270000         50.9662230000         52.2333100000
C         46.8890980000         52.0500560000         53.3127480000
C         46.5074700000         51.4294950000         54.5331680000
C         46.2437680000         50.0969530000         54.0646820000
C         46.0670710000         49.6951830000         52.6984410000
C         46.4723520000         48.5156190000         52.2904550000
C         46.4131710000         49.0548060000         54.9231460000
C         46.3928930000         47.7983790000         54.3335790000
C         46.0554280000         47.4786260000         53.0865820000
C         45.8586400000         46.1339740000         52.7339830000
C         45.6282030000         45.2141560000         53.7191930000
C         45.6525640000         45.6725460000         54.9667150000
C         46.2293500000         46.8478400000         55.2726650000
C         46.3144190000         48.8424330000         56.3154900000
C         45.9138100000         47.4205440000         56.4813520000
C         45.5701280000         45.7046680000         51.4344150000
C         45.0660720000         44.3744990000         51.1877630000
C         45.0260380000         43.4780380000         52.1263870000
C         45.2829220000         43.9478430000         53.3780010000
C         44.5394260000         43.6983350000         50.1129140000
C         44.0028100000         42.5281470000         50.5091010000
C         44.3426750000         42.2557050000         51.8746090000
C         45.0529570000         43.0171470000         54.3718980000
C         44.7055630000         41.7720060000         54.0804670000
C         44.5003030000         41.2727560000         52.8325820000
C         45.6709170000         46.6749960000         57.5286560000
C         45.4884360000         45.2079930000         57.3742140000
C         45.4184830000         44.8052550000         56.0650870000
C         45.1543270000         43.4354780000         55.7210610000
C         45.1594900000         44.3473630000         58.4330090000
C         44.8896180000         42.9873460000         57.9995220000
C         44.8220170000         42.5061720000         56.7161510000
C         44.7828590000         41.1406020000         56.5270290000
C         44.5733160000         40.7527620000         55.2723330000
C         44.8974870000         42.0479040000         59.0055920000
C         44.6898280000         40.7616500000         58.7966890000
C         44.5448230000         40.3299070000         57.5370480000
H         43.5451120000         40.6899800000         55.7175660000
H         44.7449050000         39.7536170000         54.8441560000
H         43.8749510000         41.4741600000         49.9701450000
H         42.9815000000         42.8535730000         50.5192470000
H         44.9058050000         43.8634400000         49.1165200000
H         47.5146270000         50.7852190000         51.9484870000
H         45.8554860000         51.1593410000         51.3482330000
H         46.3741730000         53.0020880000         53.2112250000
H         47.8466860000         51.8242560000         53.3678330000
H         47.2611330000         51.3622660000         55.2238940000
H         45.5586370000         51.8357500000         54.7416540000
H         45.4965920000         49.5528750000         56.6802870000
H         45.6465570000         46.9886240000         58.5276950000
H         44.9643980000         44.5262250000         59.3461310000
H         46.8809150000         48.0899830000         51.2940140000
H         45.4776910000         46.4218920000         50.7165620000
H         44.5360610000         42.4420710000         59.9910390000
H         44.1183740000         40.0619860000         59.5566710000
H         44.4349000000         39.3419330000         57.4594120000
H         44.1862940000         40.3191510000         52.4847820000
 
