8

C          6.84018        6.67808        5.16000
H          4.77428        6.49944        5.78231
H          4.73230        2.54457        5.18812
H          5.92682        5.90777        6.96839
H          6.98513        7.69551        5.52642
H          7.78814        6.15020        5.27743
H          6.63286        6.74071        4.09090
C          5.72395        5.97446        5.89832