48

C         45.58400       47.03000       37.44800
C         46.82100       46.57100       38.11600
C         46.44900       45.59100       39.17100
C         45.08300       45.36500       39.45200
C         44.12400       46.23900       38.95100
C         44.24900       47.13900       37.94400
C         47.32500       45.27700       40.03500
C         47.02000       44.47900       41.19800
C         45.74000       43.91500       41.41100
C         44.84500       44.34100       40.39400
C         43.53700       44.01900       40.70200
C         42.66200       44.41300       39.66200
C         42.92700       45.55100       39.03800
C         43.15400       43.56000       41.89600
C         44.24800       43.22800       42.76900
C         45.44500       42.73700       42.04600
H         42.30100       43.92500       42.22900
H         46.41400       42.47300       42.18600
H         47.93200       44.42000       41.93000
H         48.22500       45.69000       40.04800
H         48.01600       46.64200       37.87500
H         43.63200       47.86100       37.72900
H         42.47600       45.64100       38.11200
H         41.79200       43.89300       39.65900
C         42.68300       47.29900       59.43900
C         42.12900       45.93200       59.53100
C         43.23300       45.00100       59.88600
C         44.55600       45.49100       59.94200
C         44.85100       46.74000       59.40600
C         43.99500       47.74600       59.09700
C         43.03300       43.75400       59.75600
C         44.08600       42.77800       59.90000
C         45.39900       43.13600       60.28500
C         45.50700       44.54800       60.39000
C         46.82400       44.94800       60.51700
C         46.91300       46.35300       60.66100
C         46.06800       47.09400       59.96000
C         47.86100       44.12500       60.34800
C         47.49200       42.74000       60.23000
C         46.28500       42.38800       61.01500
H         48.62700       44.51400       59.86200
H         45.63400       41.63000       61.18700
H         43.72000       41.70400       59.60900
H         42.18600       43.39000       59.39200
H         41.00800       45.45100       59.59200
H         44.19300       48.53500       58.56100
H         45.95000       48.05600       60.32100
H         47.76900       46.65000       61.11300
