57

C         43.17700       39.25900       40.66300
C         42.55200       38.92700       42.07700
C         42.30200       40.21800       42.61700
C         43.01300       41.02900       41.66800
Si         43.48200       40.61300       40.37700
C         44.59600       41.09800       39.88200
C         43.52900       42.21900       42.08000
C         44.41300       42.81500       41.19200
C         44.67900       42.46700       39.93500
C         45.41800       43.32800       39.10800
C         45.52300       44.64900       39.44600
C         44.93600       45.01100       40.58300
C         44.59900       44.10700       41.52000
C         43.20700       43.20200       43.04100
C         43.69700       44.49000       42.48300
C         45.80000       43.01200       37.80000
C         46.26800       44.03700       36.89700
C         46.51600       45.24300       37.30800
C         46.09900       45.51300       38.57500
C         46.55300       44.11900       35.55400
C         46.73100       45.40300       35.18800
C         46.78500       46.25200       36.34000
C         46.20800       46.84700       38.91600
C         46.75800       47.72500       38.09000
C         47.23000       47.46000       36.84300
C         43.67300       45.72300       42.92000
C         44.44200       46.78100       42.21500
C         44.97700       46.35900       41.02500
C         45.67700       47.26900       40.16000
C         44.41800       48.13600       42.57700
C         45.13100       48.99000       41.64400
C         45.70700       48.63900       40.44800
C         46.53600       49.55000       39.82500
C         46.94100       49.20100       38.60800
C         45.42400       50.24800       42.11800
C         46.08100       51.15200       41.41600
C         46.56300       50.80800       40.21400
H         46.07600       49.88100       38.38700
H         47.77500       49.62700       38.03300
H         47.40000       45.91900       34.34800
H         45.75800       45.54800       34.76100
H         47.00200       43.29600       35.02800
H         44.14100       38.85000       40.92700
H         42.81700       38.84900       39.70100
H         41.62500       38.36100       42.04100
H         43.40000       38.76900       42.55400
H         42.73100       40.37900       43.53400
H         41.28400       40.38900       42.41000
H         42.06700       43.19100       43.12600
H         43.20200       46.06900       43.79000
H         43.91900       48.59600       43.24400
H         45.42500       40.69400       39.18200
H         45.49700       42.11200       37.43100
H         44.65200       50.65200       42.82400
H         45.85600       52.30900       41.47100
H         47.08400       51.53000       39.76700
H         47.64700       48.08000       36.08700