discr_freq-hr-fine-species-0232-radical-0-restricted_1_168
 OpenBabel07291313103D

 18 17  0  0  0  0  0  0  0  0999 V2000
   -2.2165    0.9927   -0.6949 O   0  0  0  0  0  0  0  0  0  0  0  0
   -3.0357    1.2854   -1.8159 C   0  0  0  0  0  0  0  0  0  0  0  0
   -1.8004    1.0482    1.0351 Ti  0  0  0  0  0  0  0  0  0  0  0  0
   -2.9148    2.7742   -2.1495 C   0  0  0  0  0  0  0  0  0  0  0  0
   -4.4745    0.8640   -1.5088 C   0  0  0  0  0  0  0  0  0  0  0  0
   -2.6599    0.6961   -2.6660 H   0  0  0  0  0  0  0  0  0  0  0  0
   -3.1186    1.9121    1.9398 O   0  0  0  0  0  0  0  0  0  0  0  0
   -1.6336   -0.6270    1.7130 O   0  0  0  0  0  0  0  0  0  0  0  0
   -0.2412    1.9653    1.2289 O   0  0  0  0  0  0  0  0  0  0  0  0
   -3.2684    3.3809   -1.3088 H   0  0  0  0  0  0  0  0  0  0  0  0
   -3.5165    3.0178   -3.0320 H   0  0  0  0  0  0  0  0  0  0  0  0
   -1.8737    3.0384   -2.3581 H   0  0  0  0  0  0  0  0  0  0  0  0
   -4.5184   -0.2003   -1.2598 H   0  0  0  0  0  0  0  0  0  0  0  0
   -5.1189    1.0455   -2.3762 H   0  0  0  0  0  0  0  0  0  0  0  0
   -4.8633    1.4343   -0.6584 H   0  0  0  0  0  0  0  0  0  0  0  0
   -3.1705    2.7942    2.3118 H   0  0  0  0  0  0  0  0  0  0  0  0
   -1.6072   -1.4986    1.3147 H   0  0  0  0  0  0  0  0  0  0  0  0
    0.5270    1.7924    1.7765 H   0  0  0  0  0  0  0  0  0  0  0  0
  1  2  1  0  0  0  0
  1  3  1  0  0  0  0
  2  4  1  0  0  0  0
  2  5  1  0  0  0  0
  2  6  1  0  0  0  0
  3  7  1  0  0  0  0
  3  8  1  0  0  0  0
  3  9  1  0  0  0  0
  4 10  1  0  0  0  0
  4 11  1  0  0  0  0
  4 12  1  0  0  0  0
  5 13  1  0  0  0  0
  5 14  1  0  0  0  0
  5 15  1  0  0  0  0
  7 16  1  0  0  0  0
  8 17  1  0  0  0  0
  9 18  1  0  0  0  0
M  END
