C:\Users\pb556\Desktop\data\g09\C3H6.g09
 OpenBabel10161314213D
Gaussian 09 #p rB971/6-311+G(d,p) Opt=(Tight, NewEstmFC, MaxCyc=400) Freq GFInpu
  9  8  0  0  0  0  0  0  0  0999 V2000
    0.6740    0.9890    0.8640 C   0  0  0  0  0  0  0  0  0  0  0  0
    1.7703    1.9672    1.1824 C   0  0  0  0  0  0  0  0  0  0  0  0
   -0.0200    0.8893    1.7081 H   0  0  0  0  0  0  0  0  0  0  0  0
    0.0808    1.3304    0.0063 H   0  0  0  0  0  0  0  0  0  0  0  0
    1.0761   -0.0018    0.6310 H   0  0  0  0  0  0  0  0  0  0  0  0
    3.0747    1.6860    1.1866 C   0  0  0  0  0  0  0  0  0  0  0  0
    1.4516    2.9813    1.4265 H   0  0  0  0  0  0  0  0  0  0  0  0
    3.8181    2.4404    1.4262 H   0  0  0  0  0  0  0  0  0  0  0  0
    3.4429    0.6899    0.9501 H   0  0  0  0  0  0  0  0  0  0  0  0
  1  2  1  0  0  0  0
  1  3  1  0  0  0  0
  2  6  2  0  0  0  0
  2  7  1  0  0  0  0
  4  1  1  0  0  0  0
  5  1  1  0  0  0  0
  6  8  1  0  0  0  0
  9  6  1  0  0  0  0
M  END
