C:\Users\pb556\Desktop\data\g09\CH4.g09
 OpenBabel10161314223D
Gaussian 09 #p rB971/6-311+G(d,p) Opt=(Tight, NewEstmFC, MaxCyc=400) Freq GFInpu
  5  4  0  0  0  0  0  0  0  0999 V2000
    1.0582    0.9352    0.8103 C   0  0  0  0  0  0  0  0  0  0  0  0
    1.4162    1.5695   -0.0041 H   0  0  0  0  0  0  0  0  0  0  0  0
    1.2072    1.4478    1.7635 H   0  0  0  0  0  0  0  0  0  0  0  0
   -0.0053    0.7284    0.6703 H   0  0  0  0  0  0  0  0  0  0  0  0
    1.6149   -0.0048    0.8114 H   0  0  0  0  0  0  0  0  0  0  0  0
  1  5  1  0  0  0  0
  1  3  1  0  0  0  0
  2  1  1  0  0  0  0
  4  1  1  0  0  0  0
M  END
