discr_freq-hr-fine-m-species-1627-radical-1_5_60
 OpenBabel07291312413D

 24 23  0  0  1  0  0  0  0  0999 V2000
   -2.3658    1.1332   -0.8011 O   0  0  0  0  0  0  0  0  0  0  0  0
   -3.4406    1.2669   -1.6037 C   0  0  1  0  0  0  0  0  0  0  0  0
   -1.0587    0.3444    0.2026 Ti  0  0  0  0  0  0  0  0  0  0  0  0
   -4.4545    2.0870   -1.2841 C   0  0  0  0  0  0  0  0  0  0  0  0
   -3.3735    0.4424   -2.8637 C   0  0  0  0  0  0  0  0  0  0  0  0
   -0.0848   -0.8235   -0.8220 O   0  0  0  0  0  0  0  0  0  0  0  0
    0.0317    1.5594    1.0153 O   0  0  0  0  0  0  0  0  0  0  0  0
   -1.8927   -0.6679    1.5198 O   0  0  0  0  0  0  0  0  0  0  0  0
   -4.4397    2.6597   -0.3634 H   0  0  0  0  0  0  0  0  0  0  0  0
   -5.3027    2.1962   -1.9490 H   0  0  0  0  0  0  0  0  0  0  0  0
   -2.4755    0.7014   -3.4362 H   0  0  0  0  0  0  0  0  0  0  0  0
   -4.2543    0.6035   -3.4893 H   0  0  0  0  0  0  0  0  0  0  0  0
   -3.3043   -0.6241   -2.6173 H   0  0  0  0  0  0  0  0  0  0  0  0
   -0.0958   -1.7761   -0.9310 H   0  0  0  0  0  0  0  0  0  0  0  0
   -0.0042    2.5114    1.1230 H   0  0  0  0  0  0  0  0  0  0  0  0
   -2.1912   -1.0905    2.7052 C   0  0  0  0  0  0  0  0  0  0  0  0
   -3.2930   -2.0948    2.8511 C   0  0  0  0  0  0  0  0  0  0  0  0
   -1.5505   -0.4386    3.8918 C   0  0  0  0  0  0  0  0  0  0  0  0
   -4.1258   -1.8685    2.1651 H   0  0  0  0  0  0  0  0  0  0  0  0
   -3.7062   -2.0857    3.8664 H   0  0  0  0  0  0  0  0  0  0  0  0
   -2.9296   -3.0983    2.6169 H   0  0  0  0  0  0  0  0  0  0  0  0
   -0.5498   -0.0747    3.6388 H   0  0  0  0  0  0  0  0  0  0  0  0
   -1.4856   -1.1299    4.7381 H   0  0  0  0  0  0  0  0  0  0  0  0
   -2.1404    0.4313    4.2258 H   0  0  0  0  0  0  0  0  0  0  0  0
  1  3  1  0  0  0  0
  2  1  1  6  0  0  0
  2  4  1  0  0  0  0
  2  5  1  0  0  0  0
  3  6  1  0  0  0  0
  3  7  1  0  0  0  0
  3  8  1  0  0  0  0
  4  9  1  0  0  0  0
  4 10  1  0  0  0  0
  5 11  1  0  0  0  0
  5 12  1  0  0  0  0
  5 13  1  0  0  0  0
  6 14  1  0  0  0  0
  7 15  1  0  0  0  0
  8 16  1  0  0  0  0
 16 17  1  0  0  0  0
 16 18  1  0  0  0  0
 17 19  1  0  0  0  0
 17 20  1  0  0  0  0
 17 21  1  0  0  0  0
 18 22  1  0  0  0  0
 18 23  1  0  0  0  0
 18 24  1  0  0  0  0
M  END
