discr_freq-hr-fine-m-species-1627-radical-1_2_204
 OpenBabel07291312413D

 24 23  0  0  1  0  0  0  0  0999 V2000
   -3.5514    0.3701   -2.6041 O   0  0  0  0  0  0  0  0  0  0  0  0
   -3.4406    1.2669   -1.6037 C   0  0  1  0  0  0  0  0  0  0  0  0
   -3.1593   -0.5667   -4.1229 Ti  0  0  0  0  0  0  0  0  0  0  0  0
   -4.4545    2.0870   -1.2841 C   0  0  0  0  0  0  0  0  0  0  0  0
   -2.1109    1.2357   -0.8945 C   0  0  0  0  0  0  0  0  0  0  0  0
   -1.5110   -1.3569   -3.9774 O   0  0  0  0  0  0  0  0  0  0  0  0
   -4.4365   -1.8012   -4.5357 O   0  0  0  0  0  0  0  0  0  0  0  0
   -3.0465    0.6507   -5.5230 O   0  0  0  0  0  0  0  0  0  0  0  0
   -5.4473    1.9316   -1.6915 H   0  0  0  0  0  0  0  0  0  0  0  0
   -4.2970    2.9152   -0.6038 H   0  0  0  0  0  0  0  0  0  0  0  0
   -1.9235    0.2350   -0.4888 H   0  0  0  0  0  0  0  0  0  0  0  0
   -2.0801    1.9627   -0.0797 H   0  0  0  0  0  0  0  0  0  0  0  0
   -1.2992    1.4575   -1.5980 H   0  0  0  0  0  0  0  0  0  0  0  0
   -0.6381   -1.1318   -4.3041 H   0  0  0  0  0  0  0  0  0  0  0  0
   -5.3153   -1.9812   -4.1975 H   0  0  0  0  0  0  0  0  0  0  0  0
   -3.2986    1.1942   -6.6693 C   0  0  0  0  0  0  0  0  0  0  0  0
   -2.6676    2.5143   -6.9903 C   0  0  0  0  0  0  0  0  0  0  0  0
   -4.3377    0.5763   -7.5535 C   0  0  0  0  0  0  0  0  0  0  0  0
   -3.3765    3.3413   -6.8213 H   0  0  0  0  0  0  0  0  0  0  0  0
   -2.3660    2.5642   -8.0430 H   0  0  0  0  0  0  0  0  0  0  0  0
   -1.7952    2.6859   -6.3551 H   0  0  0  0  0  0  0  0  0  0  0  0
   -4.3798   -0.5067   -7.4014 H   0  0  0  0  0  0  0  0  0  0  0  0
   -4.1400    0.7905   -8.6087 H   0  0  0  0  0  0  0  0  0  0  0  0
   -5.3380    0.9785   -7.3211 H   0  0  0  0  0  0  0  0  0  0  0  0
  1  3  1  0  0  0  0
  2  1  1  1  0  0  0
  2  4  1  0  0  0  0
  2  5  1  0  0  0  0
  3  6  1  0  0  0  0
  3  7  1  0  0  0  0
  3  8  1  0  0  0  0
  4  9  1  0  0  0  0
  4 10  1  0  0  0  0
  5 11  1  0  0  0  0
  5 12  1  0  0  0  0
  5 13  1  0  0  0  0
  6 14  1  0  0  0  0
  7 15  1  0  0  0  0
  8 16  1  0  0  0  0
 16 17  1  0  0  0  0
 16 18  1  0  0  0  0
 17 19  1  0  0  0  0
 17 20  1  0  0  0  0
 17 21  1  0  0  0  0
 18 22  1  0  0  0  0
 18 23  1  0  0  0  0
 18 24  1  0  0  0  0
M  END
