discr_freq-hr-fine-m-species-1627-radical-1_4_72
 OpenBabel07291312413D

 24 23  0  0  1  0  0  0  0  0999 V2000
   -2.3658    1.1332   -0.8011 O   0  0  0  0  0  0  0  0  0  0  0  0
   -3.4406    1.2669   -1.6037 C   0  0  1  0  0  0  0  0  0  0  0  0
   -1.0587    0.3444    0.2026 Ti  0  0  0  0  0  0  0  0  0  0  0  0
   -4.4545    2.0870   -1.2841 C   0  0  0  0  0  0  0  0  0  0  0  0
   -3.3735    0.4424   -2.8637 C   0  0  0  0  0  0  0  0  0  0  0  0
   -0.0848   -0.8235   -0.8220 O   0  0  0  0  0  0  0  0  0  0  0  0
    0.0317    1.5594    1.0153 O   0  0  0  0  0  0  0  0  0  0  0  0
   -1.8927   -0.6679    1.5198 O   0  0  0  0  0  0  0  0  0  0  0  0
   -4.4397    2.6597   -0.3634 H   0  0  0  0  0  0  0  0  0  0  0  0
   -5.3027    2.1962   -1.9490 H   0  0  0  0  0  0  0  0  0  0  0  0
   -2.4755    0.7014   -3.4362 H   0  0  0  0  0  0  0  0  0  0  0  0
   -4.2543    0.6035   -3.4893 H   0  0  0  0  0  0  0  0  0  0  0  0
   -3.3043   -0.6241   -2.6173 H   0  0  0  0  0  0  0  0  0  0  0  0
   -0.0958   -1.7761   -0.9310 H   0  0  0  0  0  0  0  0  0  0  0  0
   -0.0042    2.5114    1.1230 H   0  0  0  0  0  0  0  0  0  0  0  0
   -2.1912   -1.0905    2.7052 C   0  0  0  0  0  0  0  0  0  0  0  0
   -1.8159   -2.4909    3.0818 C   0  0  0  0  0  0  0  0  0  0  0  0
   -3.0461   -0.2342    3.5880 C   0  0  0  0  0  0  0  0  0  0  0  0
   -2.6801   -3.1690    2.9891 H   0  0  0  0  0  0  0  0  0  0  0  0
   -1.4801   -2.5449    4.1239 H   0  0  0  0  0  0  0  0  0  0  0  0
   -1.0253   -2.8645    2.4266 H   0  0  0  0  0  0  0  0  0  0  0  0
   -2.8827    0.8263    3.3726 H   0  0  0  0  0  0  0  0  0  0  0  0
   -2.8439   -0.4283    4.6462 H   0  0  0  0  0  0  0  0  0  0  0  0
   -4.1156   -0.4419    3.4170 H   0  0  0  0  0  0  0  0  0  0  0  0
  1  3  1  0  0  0  0
  2  1  1  6  0  0  0
  2  4  1  0  0  0  0
  2  5  1  0  0  0  0
  3  6  1  0  0  0  0
  3  7  1  0  0  0  0
  3  8  1  0  0  0  0
  4  9  1  0  0  0  0
  4 10  1  0  0  0  0
  5 11  1  0  0  0  0
  5 12  1  0  0  0  0
  5 13  1  0  0  0  0
  6 14  1  0  0  0  0
  7 15  1  0  0  0  0
  8 16  1  0  0  0  0
 16 17  1  0  0  0  0
 16 18  1  0  0  0  0
 17 19  1  0  0  0  0
 17 20  1  0  0  0  0
 17 21  1  0  0  0  0
 18 22  1  0  0  0  0
 18 23  1  0  0  0  0
 18 24  1  0  0  0  0
M  END
