discr_freq-hr-fine-m-species-1627-radical-1_2_96
 OpenBabel07291312413D

 24 23  0  0  1  0  0  0  0  0999 V2000
   -2.3341    1.7261   -2.2219 O   0  0  0  0  0  0  0  0  0  0  0  0
   -3.4406    1.2669   -1.6037 C   0  0  1  0  0  0  0  0  0  0  0  0
   -0.5694    2.0343   -2.5809 Ti  0  0  0  0  0  0  0  0  0  0  0  0
   -4.4545    2.0870   -1.2841 C   0  0  0  0  0  0  0  0  0  0  0  0
   -3.4261   -0.2169   -1.3391 C   0  0  0  0  0  0  0  0  0  0  0  0
    0.3311    0.4474   -2.7634 O   0  0  0  0  0  0  0  0  0  0  0  0
   -0.3253    3.0911   -4.0469 O   0  0  0  0  0  0  0  0  0  0  0  0
    0.1634    2.8980   -1.1070 O   0  0  0  0  0  0  0  0  0  0  0  0
   -4.4976    3.0984   -1.6727 H   0  0  0  0  0  0  0  0  0  0  0  0
   -5.2534    1.7457   -0.6370 H   0  0  0  0  0  0  0  0  0  0  0  0
   -3.2976   -0.7661   -2.2788 H   0  0  0  0  0  0  0  0  0  0  0  0
   -4.3519   -0.5422   -0.8594 H   0  0  0  0  0  0  0  0  0  0  0  0
   -2.5805   -0.4797   -0.6919 H   0  0  0  0  0  0  0  0  0  0  0  0
    0.8947   -0.0645   -2.1805 H   0  0  0  0  0  0  0  0  0  0  0  0
   -0.9178    3.6099   -4.5935 H   0  0  0  0  0  0  0  0  0  0  0  0
    0.7836    3.8098   -0.4312 C   0  0  0  0  0  0  0  0  0  0  0  0
    0.8236    3.6921    1.0616 C   0  0  0  0  0  0  0  0  0  0  0  0
    1.2840    5.0284   -1.1440 C   0  0  0  0  0  0  0  0  0  0  0  0
    0.0635    4.3398    1.5283 H   0  0  0  0  0  0  0  0  0  0  0  0
    1.7959    4.0064    1.4584 H   0  0  0  0  0  0  0  0  0  0  0  0
    0.6219    2.6634    1.3698 H   0  0  0  0  0  0  0  0  0  0  0  0
    1.5501    4.7888   -2.1782 H   0  0  0  0  0  0  0  0  0  0  0  0
    2.1509    5.4596   -0.6333 H   0  0  0  0  0  0  0  0  0  0  0  0
    0.5050    5.8083   -1.1789 H   0  0  0  0  0  0  0  0  0  0  0  0
  1  3  1  0  0  0  0
  2  1  1  6  0  0  0
  2  4  1  0  0  0  0
  2  5  1  0  0  0  0
  3  6  1  0  0  0  0
  3  7  1  0  0  0  0
  3  8  1  0  0  0  0
  4  9  1  0  0  0  0
  4 10  1  0  0  0  0
  5 11  1  0  0  0  0
  5 12  1  0  0  0  0
  5 13  1  0  0  0  0
  6 14  1  0  0  0  0
  7 15  1  0  0  0  0
  8 16  1  0  0  0  0
 16 17  1  0  0  0  0
 16 18  1  0  0  0  0
 17 19  1  0  0  0  0
 17 20  1  0  0  0  0
 17 21  1  0  0  0  0
 18 22  1  0  0  0  0
 18 23  1  0  0  0  0
 18 24  1  0  0  0  0
M  END
