discr_freq-hr-fine-m-species-1627-radical-1_2_312
 OpenBabel07291312413D

 24 23  0  0  1  0  0  0  0  0999 V2000
   -3.0902    0.2391   -0.8050 O   0  0  0  0  0  0  0  0  0  0  0  0
   -3.4406    1.2669   -1.6037 C   0  0  1  0  0  0  0  0  0  0  0  0
   -2.6659   -1.4568   -0.2739 Ti  0  0  0  0  0  0  0  0  0  0  0  0
   -4.4545    2.0870   -1.2841 C   0  0  0  0  0  0  0  0  0  0  0  0
   -2.5880    1.4039   -2.8391 C   0  0  0  0  0  0  0  0  0  0  0  0
   -1.2385   -2.0884   -1.2363 O   0  0  0  0  0  0  0  0  0  0  0  0
   -2.3423   -1.5713    1.5172 O   0  0  0  0  0  0  0  0  0  0  0  0
   -4.1110   -2.5531   -0.6798 O   0  0  0  0  0  0  0  0  0  0  0  0
   -4.9006    2.0636   -0.2961 H   0  0  0  0  0  0  0  0  0  0  0  0
   -4.8380    2.7942   -2.0095 H   0  0  0  0  0  0  0  0  0  0  0  0
   -1.5350    1.5223   -2.5591 H   0  0  0  0  0  0  0  0  0  0  0  0
   -2.8964    2.2629   -3.4393 H   0  0  0  0  0  0  0  0  0  0  0  0
   -2.6601    0.4983   -3.4536 H   0  0  0  0  0  0  0  0  0  0  0  0
   -1.1564   -2.6742   -1.9910 H   0  0  0  0  0  0  0  0  0  0  0  0
   -2.4605   -0.9647    2.2501 H   0  0  0  0  0  0  0  0  0  0  0  0
   -5.0687   -3.4019   -0.4918 C   0  0  0  0  0  0  0  0  0  0  0  0
   -5.9994   -3.6949   -1.6282 C   0  0  0  0  0  0  0  0  0  0  0  0
   -5.3158   -3.9240    0.8903 C   0  0  0  0  0  0  0  0  0  0  0  0
   -6.9378   -3.1256   -1.5258 H   0  0  0  0  0  0  0  0  0  0  0  0
   -6.2728   -4.7562   -1.6535 H   0  0  0  0  0  0  0  0  0  0  0  0
   -5.5408   -3.4163   -2.5800 H   0  0  0  0  0  0  0  0  0  0  0  0
   -4.3825   -3.9641    1.4605 H   0  0  0  0  0  0  0  0  0  0  0  0
   -5.7718   -4.9188    0.8636 H   0  0  0  0  0  0  0  0  0  0  0  0
   -6.0069   -3.2632    1.4398 H   0  0  0  0  0  0  0  0  0  0  0  0
  1  3  1  0  0  0  0
  2  1  1  1  0  0  0
  2  4  1  0  0  0  0
  2  5  1  0  0  0  0
  3  6  1  0  0  0  0
  3  7  1  0  0  0  0
  3  8  1  0  0  0  0
  4  9  1  0  0  0  0
  4 10  1  0  0  0  0
  5 11  1  0  0  0  0
  5 12  1  0  0  0  0
  5 13  1  0  0  0  0
  6 14  1  0  0  0  0
  7 15  1  0  0  0  0
  8 16  1  0  0  0  0
 16 17  1  0  0  0  0
 16 18  1  0  0  0  0
 17 19  1  0  0  0  0
 17 20  1  0  0  0  0
 17 21  1  0  0  0  0
 18 22  1  0  0  0  0
 18 23  1  0  0  0  0
 18 24  1  0  0  0  0
M  END
